* E:\PROJECTS\circuit_graph\CODE\circuit2.asc
V1 VCC 0 9
R1 A VCC 3
R2 0 A 6
R3 O A 2
R4 O 0 4
.tran 1
.backanno
.end
